LAMMPS (19 Nov 2024 - Development - patch_19Nov2024-124-gb4a6be2623)
atom_style              atomic
units                   metal
boundary                p p p
atom_modify             sort 0 0.0

lattice                 sc 1.0
Lattice spacing in x,y,z = 1 1 1
region                  box block 0 10 0 10 0 10
create_box              1 box
Created orthogonal box = (0 0 0) to (10 10 10)
create_atoms            1 region box
Created 1000 atoms

variable                l equal 47.6
change_box              all x final 0 $l y final 0 $l z final 0 $l remap
change_box              all x final 0 47.6 y final 0 $l z final 0 $l remap
change_box              all x final 0 47.6 y final 0 47.6 z final 0 $l remap
change_box              all x final 0 47.6 y final 0 47.6 z final 0 47.6 remap
Changing box ...
  orthogonal box = (0 0 0) to (47.6 10 10)
  orthogonal box = (0 0 0) to (47.6 47.6 10)
  orthogonal box = (0 0 0) to (47.6 47.6 47.6)
region                  world block INF INF  INF INF  INF INF

### interactions
pair_style              hybrid/overlay pace dispersion/d3 bj pbe 16.0 16.0
ACE version: 2023.11.25
Recursive evaluator is used
pair_coeff              * * pace potential_files/c_ace.yace C
Loading potential_files/c_ace.yace
Total number of basis functions
	C: 20 (r=1) 455 (r>1)
Mapping LAMMPS atom type #1(C) -> ACE species type #0
pair_coeff              * * dispersion/d3 C

mass                    1 12.011000
velocity                all create 200 1234

compute                 c1 all pair pace
compute                 c2 all pair dispersion/d3

# calculate the e/atom for each pair style individually
variable                Upace equal c_c1/atoms
variable                Ud3 equal c_c2/atoms

### run
timestep                0.001
fix                     1 all nvt temp 200 8000 0.05
thermo_style            custom step time pe press density etotal v_Upace v_Ud3 temp
thermo                  10
run                     1000
Step          Time          PotEng         Press         Density         TotEng        v_Upace         v_Ud3           Temp
0   0             -269.22784     -10163.81       0.18493       -243.40166     -0.2577066     -0.011521241    200
Averages over the last 51 of 101 rows, steps 500 to 1000:
PotEng Press Density TotEng v_Upace v_Ud3 Temp
-5963.78 150.871 0.18493 -5201.07 -5.93252 -0.0312671 5906.51
Loop time of 49.5358 on 1 procs for 1000 steps with 1000 atoms
